/*--------------------------------*- C++ -*----------------------------------*\
| =========                 |                                                  |
| \      /  F ield         | OpenFOAM: The Open Source CFD Toolbox            |
|  \    /   O peration     | Version:  2.2.2                                  |
|   \  /    A nd           | Web:      www.OpenFOAM.org                       |
|    \/     M anipulation  |                                                  |
\*----------------------------------------------------------------------------*/
FoamFile
{
     version     2.0;
     format     ascii;
     class     dictionary;
     object     blockMeshDict;
}
// * * * * * * * * * * * * * * * * * * * * * * * * * * * * * * * * * * * * * //
upperSurfaceFront
(
	(3.478511e-02 6.282875e-02 0.000000e+00)
	(7.436508e-02 8.543216e-02 0.000000e+00)
	(1.147166e-01 1.031238e-01 0.000000e+00)
	(1.552920e-01 1.179392e-01 0.000000e+00)
	(1.960005e-01 1.305861e-01 0.000000e+00)
	(2.368567e-01 1.412962e-01 0.000000e+00)
	(2.778416e-01 1.502295e-01 0.000000e+00)
	(3.189262e-01 1.574629e-01 0.000000e+00)
	(3.600767e-01 1.630159e-01 0.000000e+00)
	(4.012627e-01 1.669598e-01 0.000000e+00)
	(4.424659e-01 1.693077e-01 0.000000e+00)
	(4.836749e-01 1.700203e-01 0.000000e+00)
	(5.248793e-01 1.689864e-01 0.000000e+00)
	(5.660636e-01 1.659768e-01 0.000000e+00)
	(6.072073e-01 1.608464e-01 0.000000e+00)
	(6.483178e-01 1.537740e-01 0.000000e+00)
	(6.894504e-01 1.450752e-01 0.000000e+00)
	(7.306360e-01 1.348310e-01 0.000000e+00)
	(7.718715e-01 1.225152e-01 0.000000e+00)
	(8.131119e-01 1.076245e-01 0.000000e+00)
	(8.534885e-01 9.025714e-02 0.000000e+00)
	(8.916141e-01 7.118659e-02 0.000000e+00)
	(9.286628e-01 5.074654e-02 0.000000e+00)
	(9.652902e-01 2.920515e-02 0.000000e+00)
);
upperSurfaceBack
(
	(3.478511e-02 6.282875e-02 1.000000e+00)
	(7.436508e-02 8.543216e-02 1.000000e+00)
	(1.147166e-01 1.031238e-01 1.000000e+00)
	(1.552920e-01 1.179392e-01 1.000000e+00)
	(1.960005e-01 1.305861e-01 1.000000e+00)
	(2.368567e-01 1.412962e-01 1.000000e+00)
	(2.778416e-01 1.502295e-01 1.000000e+00)
	(3.189262e-01 1.574629e-01 1.000000e+00)
	(3.600767e-01 1.630159e-01 1.000000e+00)
	(4.012627e-01 1.669598e-01 1.000000e+00)
	(4.424659e-01 1.693077e-01 1.000000e+00)
	(4.836749e-01 1.700203e-01 1.000000e+00)
	(5.248793e-01 1.689864e-01 1.000000e+00)
	(5.660636e-01 1.659768e-01 1.000000e+00)
	(6.072073e-01 1.608464e-01 1.000000e+00)
	(6.483178e-01 1.537740e-01 1.000000e+00)
	(6.894504e-01 1.450752e-01 1.000000e+00)
	(7.306360e-01 1.348310e-01 1.000000e+00)
	(7.718715e-01 1.225152e-01 1.000000e+00)
	(8.131119e-01 1.076245e-01 1.000000e+00)
	(8.534885e-01 9.025714e-02 1.000000e+00)
	(8.916141e-01 7.118659e-02 1.000000e+00)
	(9.286628e-01 5.074654e-02 1.000000e+00)
	(9.652902e-01 2.920515e-02 1.000000e+00)
);
lowerOffsetSurfaceFront
(
	(5.556585e-02 -1.289068e-01 0.000000e+00)
	(9.741454e-02 -1.325740e-01 0.000000e+00)
	(1.379070e-01 -1.350177e-01 0.000000e+00)
	(1.770326e-01 -1.371402e-01 0.000000e+00)
	(2.162319e-01 -1.390755e-01 0.000000e+00)
	(2.557386e-01 -1.406293e-01 0.000000e+00)
	(2.953901e-01 -1.416364e-01 0.000000e+00)
	(3.348581e-01 -1.420297e-01 0.000000e+00)
	(3.738543e-01 -1.419412e-01 0.000000e+00)
	(4.124529e-01 -1.415689e-01 0.000000e+00)
	(4.509479e-01 -1.410045e-01 0.000000e+00)
	(4.896943e-01 -1.402174e-01 0.000000e+00)
	(5.291163e-01 -1.390140e-01 0.000000e+00)
	(5.691536e-01 -1.370294e-01 0.000000e+00)
	(6.089684e-01 -1.341788e-01 0.000000e+00)
	(6.477485e-01 -1.308602e-01 0.000000e+00)
	(6.853833e-01 -1.276105e-01 0.000000e+00)
	(7.226363e-01 -1.247218e-01 0.000000e+00)
	(7.599544e-01 -1.220485e-01 0.000000e+00)
	(7.971278e-01 -1.196243e-01 0.000000e+00)
	(8.349571e-01 -1.174834e-01 0.000000e+00)
	(8.757810e-01 -1.156025e-01 0.000000e+00)
	(9.190168e-01 -1.133575e-01 0.000000e+00)
	(9.634244e-01 -1.103118e-01 0.000000e+00)
);
lowerOffsetSurfaceBack
(
	(5.556585e-02 -1.289068e-01 1.000000e+00)
	(9.741454e-02 -1.325740e-01 1.000000e+00)
	(1.379070e-01 -1.350177e-01 1.000000e+00)
	(1.770326e-01 -1.371402e-01 1.000000e+00)
	(2.162319e-01 -1.390755e-01 1.000000e+00)
	(2.557386e-01 -1.406293e-01 1.000000e+00)
	(2.953901e-01 -1.416364e-01 1.000000e+00)
	(3.348581e-01 -1.420297e-01 1.000000e+00)
	(3.738543e-01 -1.419412e-01 1.000000e+00)
	(4.124529e-01 -1.415689e-01 1.000000e+00)
	(4.509479e-01 -1.410045e-01 1.000000e+00)
	(4.896943e-01 -1.402174e-01 1.000000e+00)
	(5.291163e-01 -1.390140e-01 1.000000e+00)
	(5.691536e-01 -1.370294e-01 1.000000e+00)
	(6.089684e-01 -1.341788e-01 1.000000e+00)
	(6.477485e-01 -1.308602e-01 1.000000e+00)
	(6.853833e-01 -1.276105e-01 1.000000e+00)
	(7.226363e-01 -1.247218e-01 1.000000e+00)
	(7.599544e-01 -1.220485e-01 1.000000e+00)
	(7.971278e-01 -1.196243e-01 1.000000e+00)
	(8.349571e-01 -1.174834e-01 1.000000e+00)
	(8.757810e-01 -1.156025e-01 1.000000e+00)
	(9.190168e-01 -1.133575e-01 1.000000e+00)
	(9.634244e-01 -1.103118e-01 1.000000e+00)
);
noseSurfaceFront
(
	(2.084641e-02 5.230153e-02 0.000000e+00)
	(1.740522e-02 4.928888e-02 0.000000e+00)
	(1.479623e-02 4.683942e-02 0.000000e+00)
	(1.270798e-02 4.475001e-02 0.000000e+00)
	(1.097594e-02 4.291344e-02 0.000000e+00)
	(9.502876e-03 4.126500e-02 0.000000e+00)
	(8.226678e-03 3.976220e-02 0.000000e+00)
	(7.105280e-03 3.837554e-02 0.000000e+00)
	(6.108886e-03 3.708368e-02 0.000000e+00)
	(5.215649e-03 3.587058e-02 0.000000e+00)
	(4.409071e-03 3.472386e-02 0.000000e+00)
	(3.676418e-03 3.363381e-02 0.000000e+00)
	(3.007653e-03 3.259256e-02 0.000000e+00)
	(2.394737e-03 3.159371e-02 0.000000e+00)
	(1.831164e-03 3.063184e-02 0.000000e+00)
	(1.311568e-03 2.970250e-02 0.000000e+00)
	(8.315142e-04 2.880180e-02 0.000000e+00)
	(3.872775e-04 2.792643e-02 0.000000e+00)
	(-2.426956e-05 2.707344e-02 0.000000e+00)
	(-4.057762e-04 2.624027e-02 0.000000e+00)
	(-7.594975e-04 2.542460e-02 0.000000e+00)
	(-1.087339e-03 2.462433e-02 0.000000e+00)
	(-1.390942e-03 2.383757e-02 0.000000e+00)
	(-1.671690e-03 2.306253e-02 0.000000e+00)
	(-1.930756e-03 2.229755e-02 0.000000e+00)
	(-2.169112e-03 2.154105e-02 0.000000e+00)
	(-2.387576e-03 2.079154e-02 0.000000e+00)
	(-2.586770e-03 2.004748e-02 0.000000e+00)
	(-2.767202e-03 1.930747e-02 0.000000e+00)
	(-2.929209e-03 1.856996e-02 0.000000e+00)
	(-3.072965e-03 1.783344e-02 0.000000e+00)
	(-3.198518e-03 1.709632e-02 0.000000e+00)
	(-3.305721e-03 1.635687e-02 0.000000e+00)
	(-3.394277e-03 1.561327e-02 0.000000e+00)
	(-3.463631e-03 1.486343e-02 0.000000e+00)
	(-3.513010e-03 1.410502e-02 0.000000e+00)
	(-3.541325e-03 1.333535e-02 0.000000e+00)
	(-3.547062e-03 1.255114e-02 0.000000e+00)
	(-3.528239e-03 1.174847e-02 0.000000e+00)
	(-3.482126e-03 1.092238e-02 0.000000e+00)
	(-3.404984e-03 1.006638e-02 0.000000e+00)
	(-3.291527e-03 9.171650e-03 0.000000e+00)
	(-3.134056e-03 8.225650e-03 0.000000e+00)
	(-2.920614e-03 7.209140e-03 0.000000e+00)
	(-2.631012e-03 6.089890e-03 0.000000e+00)
	(-2.225937e-03 4.805000e-03 0.000000e+00)
	(-1.605178e-03 3.193150e-03 0.000000e+00)
	(0.000000e+00 0.000000e+00 0.000000e+00)
	(0.000000e+00 0.000000e+00 0.000000e+00)
	(2.111120e-03 -2.982130e-03 0.000000e+00)
	(3.248280e-03 -4.379150e-03 0.000000e+00)
	(4.180640e-03 -5.445330e-03 0.000000e+00)
	(5.008890e-03 -6.341810e-03 0.000000e+00)
	(5.772840e-03 -7.131290e-03 0.000000e+00)
	(6.493220e-03 -7.845880e-03 0.000000e+00)
	(7.182550e-03 -8.504580e-03 0.000000e+00)
	(7.849150e-03 -9.119730e-03 0.000000e+00)
	(8.498950e-03 -9.699940e-03 0.000000e+00)
	(9.136400e-03 -1.025147e-02 0.000000e+00)
	(9.764980e-03 -1.077903e-02 0.000000e+00)
	(1.038750e-02 -1.128626e-02 0.000000e+00)
	(1.100636e-02 -1.177615e-02 0.000000e+00)
	(1.162359e-02 -1.225106e-02 0.000000e+00)
	(1.224102e-02 -1.271300e-02 0.000000e+00)
	(1.286031e-02 -1.316369e-02 0.000000e+00)
	(1.348300e-02 -1.360453e-02 0.000000e+00)
	(1.411057e-02 -1.403682e-02 0.000000e+00)
	(1.474445e-02 -1.446165e-02 0.000000e+00)
	(1.538607e-02 -1.488007e-02 0.000000e+00)
	(1.603689e-02 -1.529297e-02 0.000000e+00)
	(1.669836e-02 -1.570118e-02 0.000000e+00)
	(1.737204e-02 -1.610549e-02 0.000000e+00)
	(1.805955e-02 -1.650664e-02 0.000000e+00)
	(1.876263e-02 -1.690535e-02 0.000000e+00)
	(1.948316e-02 -1.730229e-02 0.000000e+00)
	(2.022321e-02 -1.769816e-02 0.000000e+00)
	(2.098504e-02 -1.809361e-02 0.000000e+00)
	(2.177119e-02 -1.848938e-02 0.000000e+00)
	(2.258453e-02 -1.888613e-02 0.000000e+00)
	(2.342829e-02 -1.928466e-02 0.000000e+00)
	(2.430622e-02 -1.968572e-02 0.000000e+00)
	(2.522263e-02 -2.009018e-02 0.000000e+00)
	(2.618259e-02 -2.049898e-02 0.000000e+00)
	(2.719213e-02 -2.091315e-02 0.000000e+00)
	(2.825846e-02 -2.133391e-02 0.000000e+00)
	(2.939036e-02 -2.176261e-02 0.000000e+00)
	(3.059870e-02 -2.220081e-02 0.000000e+00)
	(3.189712e-02 -2.265046e-02 0.000000e+00)
	(3.330313e-02 -2.311387e-02 0.000000e+00)
	(3.483980e-02 -2.359392e-02 0.000000e+00)
	(3.653827e-02 -2.409432e-02 0.000000e+00)
	(3.844223e-02 -2.461995e-02 0.000000e+00)
	(4.061571e-02 -2.517753e-02 0.000000e+00)
	(4.315814e-02 -2.577665e-02 0.000000e+00)
	(4.623708e-02 -2.643296e-02 0.000000e+00)
	(5.017126e-02 -2.717892e-02 0.000000e+00)
);
noseSurfaceBack
(
	(2.084641e-02 5.230153e-02 1.000000e+00)
	(1.740522e-02 4.928888e-02 1.000000e+00)
	(1.479623e-02 4.683942e-02 1.000000e+00)
	(1.270798e-02 4.475001e-02 1.000000e+00)
	(1.097594e-02 4.291344e-02 1.000000e+00)
	(9.502876e-03 4.126500e-02 1.000000e+00)
	(8.226678e-03 3.976220e-02 1.000000e+00)
	(7.105280e-03 3.837554e-02 1.000000e+00)
	(6.108886e-03 3.708368e-02 1.000000e+00)
	(5.215649e-03 3.587058e-02 1.000000e+00)
	(4.409071e-03 3.472386e-02 1.000000e+00)
	(3.676418e-03 3.363381e-02 1.000000e+00)
	(3.007653e-03 3.259256e-02 1.000000e+00)
	(2.394737e-03 3.159371e-02 1.000000e+00)
	(1.831164e-03 3.063184e-02 1.000000e+00)
	(1.311568e-03 2.970250e-02 1.000000e+00)
	(8.315142e-04 2.880180e-02 1.000000e+00)
	(3.872775e-04 2.792643e-02 1.000000e+00)
	(-2.426956e-05 2.707344e-02 1.000000e+00)
	(-4.057762e-04 2.624027e-02 1.000000e+00)
	(-7.594975e-04 2.542460e-02 1.000000e+00)
	(-1.087339e-03 2.462433e-02 1.000000e+00)
	(-1.390942e-03 2.383757e-02 1.000000e+00)
	(-1.671690e-03 2.306253e-02 1.000000e+00)
	(-1.930756e-03 2.229755e-02 1.000000e+00)
	(-2.169112e-03 2.154105e-02 1.000000e+00)
	(-2.387576e-03 2.079154e-02 1.000000e+00)
	(-2.586770e-03 2.004748e-02 1.000000e+00)
	(-2.767202e-03 1.930747e-02 1.000000e+00)
	(-2.929209e-03 1.856996e-02 1.000000e+00)
	(-3.072965e-03 1.783344e-02 1.000000e+00)
	(-3.198518e-03 1.709632e-02 1.000000e+00)
	(-3.305721e-03 1.635687e-02 1.000000e+00)
	(-3.394277e-03 1.561327e-02 1.000000e+00)
	(-3.463631e-03 1.486343e-02 1.000000e+00)
	(-3.513010e-03 1.410502e-02 1.000000e+00)
	(-3.541325e-03 1.333535e-02 1.000000e+00)
	(-3.547062e-03 1.255114e-02 1.000000e+00)
	(-3.528239e-03 1.174847e-02 1.000000e+00)
	(-3.482126e-03 1.092238e-02 1.000000e+00)
	(-3.404984e-03 1.006638e-02 1.000000e+00)
	(-3.291527e-03 9.171650e-03 1.000000e+00)
	(-3.134056e-03 8.225650e-03 1.000000e+00)
	(-2.920614e-03 7.209140e-03 1.000000e+00)
	(-2.631012e-03 6.089890e-03 1.000000e+00)
	(-2.225937e-03 4.805000e-03 1.000000e+00)
	(-1.605178e-03 3.193150e-03 1.000000e+00)
	(0.000000e+00 0.000000e+00 1.000000e+00)
	(0.000000e+00 0.000000e+00 1.000000e+00)
	(2.111120e-03 -2.982130e-03 1.000000e+00)
	(3.248280e-03 -4.379150e-03 1.000000e+00)
	(4.180640e-03 -5.445330e-03 1.000000e+00)
	(5.008890e-03 -6.341810e-03 1.000000e+00)
	(5.772840e-03 -7.131290e-03 1.000000e+00)
	(6.493220e-03 -7.845880e-03 1.000000e+00)
	(7.182550e-03 -8.504580e-03 1.000000e+00)
	(7.849150e-03 -9.119730e-03 1.000000e+00)
	(8.498950e-03 -9.699940e-03 1.000000e+00)
	(9.136400e-03 -1.025147e-02 1.000000e+00)
	(9.764980e-03 -1.077903e-02 1.000000e+00)
	(1.038750e-02 -1.128626e-02 1.000000e+00)
	(1.100636e-02 -1.177615e-02 1.000000e+00)
	(1.162359e-02 -1.225106e-02 1.000000e+00)
	(1.224102e-02 -1.271300e-02 1.000000e+00)
	(1.286031e-02 -1.316369e-02 1.000000e+00)
	(1.348300e-02 -1.360453e-02 1.000000e+00)
	(1.411057e-02 -1.403682e-02 1.000000e+00)
	(1.474445e-02 -1.446165e-02 1.000000e+00)
	(1.538607e-02 -1.488007e-02 1.000000e+00)
	(1.603689e-02 -1.529297e-02 1.000000e+00)
	(1.669836e-02 -1.570118e-02 1.000000e+00)
	(1.737204e-02 -1.610549e-02 1.000000e+00)
	(1.805955e-02 -1.650664e-02 1.000000e+00)
	(1.876263e-02 -1.690535e-02 1.000000e+00)
	(1.948316e-02 -1.730229e-02 1.000000e+00)
	(2.022321e-02 -1.769816e-02 1.000000e+00)
	(2.098504e-02 -1.809361e-02 1.000000e+00)
	(2.177119e-02 -1.848938e-02 1.000000e+00)
	(2.258453e-02 -1.888613e-02 1.000000e+00)
	(2.342829e-02 -1.928466e-02 1.000000e+00)
	(2.430622e-02 -1.968572e-02 1.000000e+00)
	(2.522263e-02 -2.009018e-02 1.000000e+00)
	(2.618259e-02 -2.049898e-02 1.000000e+00)
	(2.719213e-02 -2.091315e-02 1.000000e+00)
	(2.825846e-02 -2.133391e-02 1.000000e+00)
	(2.939036e-02 -2.176261e-02 1.000000e+00)
	(3.059870e-02 -2.220081e-02 1.000000e+00)
	(3.189712e-02 -2.265046e-02 1.000000e+00)
	(3.330313e-02 -2.311387e-02 1.000000e+00)
	(3.483980e-02 -2.359392e-02 1.000000e+00)
	(3.653827e-02 -2.409432e-02 1.000000e+00)
	(3.844223e-02 -2.461995e-02 1.000000e+00)
	(4.061571e-02 -2.517753e-02 1.000000e+00)
	(4.315814e-02 -2.577665e-02 1.000000e+00)
	(4.623708e-02 -2.643296e-02 1.000000e+00)
	(5.017126e-02 -2.717892e-02 1.000000e+00)
);
lowerSurfaceFront
(
	(6.521489e-02 -2.937340e-02 0.000000e+00)
	(1.048016e-01 -3.284726e-02 0.000000e+00)
	(1.436168e-01 -3.518085e-02 0.000000e+00)
	(1.822080e-01 -3.727422e-02 0.000000e+00)
	(2.206662e-01 -3.917386e-02 0.000000e+00)
	(2.589766e-01 -4.068171e-02 0.000000e+00)
	(2.971584e-01 -4.165200e-02 0.000000e+00)
	(3.352405e-01 -4.203048e-02 0.000000e+00)
	(3.732566e-01 -4.194298e-02 0.000000e+00)
	(4.112373e-01 -4.157625e-02 0.000000e+00)
	(4.492007e-01 -4.101972e-02 0.000000e+00)
	(4.871585e-01 -4.024955e-02 0.000000e+00)
	(5.251207e-01 -3.909390e-02 0.000000e+00)
	(5.631031e-01 -3.721265e-02 0.000000e+00)
	(6.011261e-01 -3.448677e-02 0.000000e+00)
	(6.391822e-01 -3.122782e-02 0.000000e+00)
	(6.772163e-01 -2.794459e-02 0.000000e+00)
	(7.151973e-01 -2.499887e-02 0.000000e+00)
	(7.531285e-01 -2.228178e-02 0.000000e+00)
	(7.910548e-01 -1.980884e-02 0.000000e+00)
	(8.298448e-01 -1.761415e-02 0.000000e+00)
	(8.708858e-01 -1.572236e-02 0.000000e+00)
	(9.130039e-01 -1.353848e-02 0.000000e+00)
	(9.555432e-01 -1.062282e-02 0.000000e+00)
);
lowerSurfaceBack
(
	(6.521489e-02 -2.937340e-02 1.000000e+00)
	(1.048016e-01 -3.284726e-02 1.000000e+00)
	(1.436168e-01 -3.518085e-02 1.000000e+00)
	(1.822080e-01 -3.727422e-02 1.000000e+00)
	(2.206662e-01 -3.917386e-02 1.000000e+00)
	(2.589766e-01 -4.068171e-02 1.000000e+00)
	(2.971584e-01 -4.165200e-02 1.000000e+00)
	(3.352405e-01 -4.203048e-02 1.000000e+00)
	(3.732566e-01 -4.194298e-02 1.000000e+00)
	(4.112373e-01 -4.157625e-02 1.000000e+00)
	(4.492007e-01 -4.101972e-02 1.000000e+00)
	(4.871585e-01 -4.024955e-02 1.000000e+00)
	(5.251207e-01 -3.909390e-02 1.000000e+00)
	(5.631031e-01 -3.721265e-02 1.000000e+00)
	(6.011261e-01 -3.448677e-02 1.000000e+00)
	(6.391822e-01 -3.122782e-02 1.000000e+00)
	(6.772163e-01 -2.794459e-02 1.000000e+00)
	(7.151973e-01 -2.499887e-02 1.000000e+00)
	(7.531285e-01 -2.228178e-02 1.000000e+00)
	(7.910548e-01 -1.980884e-02 1.000000e+00)
	(8.298448e-01 -1.761415e-02 1.000000e+00)
	(8.708858e-01 -1.572236e-02 1.000000e+00)
	(9.130039e-01 -1.353848e-02 1.000000e+00)
	(9.555432e-01 -1.062282e-02 1.000000e+00)
);
noseOffsetSurfaceFront
(
	(-4.325953e-02 1.290507e-01 0.000000e+00)
	(-4.960606e-02 1.235148e-01 0.000000e+00)
	(-5.469178e-02 1.187520e-01 0.000000e+00)
	(-5.896082e-02 1.144894e-01 0.000000e+00)
	(-6.262879e-02 1.106064e-01 0.000000e+00)
	(-6.585037e-02 1.070061e-01 0.000000e+00)
	(-6.873003e-02 1.036188e-01 0.000000e+00)
	(-7.133782e-02 1.003972e-01 0.000000e+00)
	(-7.372388e-02 9.730601e-02 0.000000e+00)
	(-7.592564e-02 9.431792e-02 0.000000e+00)
	(-7.797017e-02 9.141302e-02 0.000000e+00)
	(-7.987884e-02 8.857485e-02 0.000000e+00)
	(-8.166848e-02 8.578986e-02 0.000000e+00)
	(-8.335345e-02 8.304512e-02 0.000000e+00)
	(-8.494414e-02 8.033140e-02 0.000000e+00)
	(-8.644881e-02 7.764117e-02 0.000000e+00)
	(-8.787515e-02 7.496595e-02 0.000000e+00)
	(-8.922890e-02 7.229917e-02 0.000000e+00)
	(-9.051510e-02 6.963410e-02 0.000000e+00)
	(-9.173731e-02 6.696557e-02 0.000000e+00)
	(-9.289922e-02 6.428680e-02 0.000000e+00)
	(-9.400284e-02 6.159337e-02 0.000000e+00)
	(-9.504994e-02 5.888028e-02 0.000000e+00)
	(-9.604209e-02 5.614164e-02 0.000000e+00)
	(-9.698000e-02 5.337232e-02 0.000000e+00)
	(-9.786357e-02 5.056813e-02 0.000000e+00)
	(-9.869304e-02 4.772215e-02 0.000000e+00)
	(-9.946735e-02 4.482962e-02 0.000000e+00)
	(-1.001850e-01 4.188557e-02 0.000000e+00)
	(-1.008448e-01 3.888094e-02 0.000000e+00)
	(-1.014438e-01 3.581083e-02 0.000000e+00)
	(-1.019788e-01 3.266735e-02 0.000000e+00)
	(-1.024458e-01 2.944310e-02 0.000000e+00)
	(-1.028399e-01 2.612822e-02 0.000000e+00)
	(-1.031552e-01 2.271137e-02 0.000000e+00)
	(-1.033840e-01 1.918287e-02 0.000000e+00)
	(-1.035173e-01 1.552627e-02 0.000000e+00)
	(-1.035437e-01 1.172652e-02 0.000000e+00)
	(-1.034489e-01 7.764761e-03 0.000000e+00)
	(-1.032147e-01 3.614463e-03 0.000000e+00)
	(-1.028176e-01 -7.564936e-04 0.000000e+00)
	(-1.022256e-01 -5.389969e-03 0.000000e+00)
	(-1.013945e-01 -1.034550e-02 0.000000e+00)
	(-1.002571e-01 -1.571691e-02 0.000000e+00)
	(-9.870086e-02 -2.166951e-02 0.000000e+00)
	(-9.648963e-02 -2.857697e-02 0.000000e+00)
	(-9.234179e-02 -3.884098e-02 0.000000e+00)
	(-8.548222e-02 -5.134664e-02 0.000000e+00)
	(-8.548222e-02 -5.134664e-02 0.000000e+00)
	(-7.820541e-02 -6.255775e-02 0.000000e+00)
	(-7.331559e-02 -6.870623e-02 0.000000e+00)
	(-7.025776e-02 -7.222051e-02 0.000000e+00)
	(-6.769448e-02 -7.500199e-02 0.000000e+00)
	(-6.540337e-02 -7.737335e-02 0.000000e+00)
	(-6.328612e-02 -7.947579e-02 0.000000e+00)
	(-6.128778e-02 -8.138677e-02 0.000000e+00)
	(-5.937602e-02 -8.315200e-02 0.000000e+00)
	(-5.752964e-02 -8.480138e-02 0.000000e+00)
	(-5.573184e-02 -8.635739e-02 0.000000e+00)
	(-5.396974e-02 -8.783670e-02 0.000000e+00)
	(-5.223568e-02 -8.924995e-02 0.000000e+00)
	(-5.052258e-02 -9.060628e-02 0.000000e+00)
	(-4.882371e-02 -9.191362e-02 0.000000e+00)
	(-4.713633e-02 -9.317623e-02 0.000000e+00)
	(-4.545398e-02 -9.440065e-02 0.000000e+00)
	(-4.377289e-02 -9.559089e-02 0.000000e+00)
	(-4.209057e-02 -9.674977e-02 0.000000e+00)
	(-4.040444e-02 -9.787987e-02 0.000000e+00)
	(-3.871113e-02 -9.898413e-02 0.000000e+00)
	(-3.700614e-02 -1.000658e-01 0.000000e+00)
	(-3.528793e-02 -1.011262e-01 0.000000e+00)
	(-3.355339e-02 -1.021671e-01 0.000000e+00)
	(-3.180025e-02 -1.031900e-01 0.000000e+00)
	(-3.002433e-02 -1.041970e-01 0.000000e+00)
	(-2.822248e-02 -1.051896e-01 0.000000e+00)
	(-2.639095e-02 -1.061692e-01 0.000000e+00)
	(-2.452744e-02 -1.071364e-01 0.000000e+00)
	(-2.262608e-02 -1.080934e-01 0.000000e+00)
	(-2.068292e-02 -1.090412e-01 0.000000e+00)
	(-1.869298e-02 -1.099808e-01 0.000000e+00)
	(-1.664850e-02 -1.109146e-01 0.000000e+00)
	(-1.454496e-02 -1.118428e-01 0.000000e+00)
	(-1.237254e-02 -1.127676e-01 0.000000e+00)
	(-1.012341e-02 -1.136900e-01 0.000000e+00)
	(-7.786780e-03 -1.146117e-01 0.000000e+00)
	(-5.346165e-03 -1.155356e-01 0.000000e+00)
	(-2.787323e-03 -1.164631e-01 0.000000e+00)
	(-9.064741e-05 -1.173963e-01 0.000000e+00)
	(2.772654e-03 -1.183393e-01 0.000000e+00)
	(5.836228e-03 -1.192955e-01 0.000000e+00)
	(9.146032e-03 -1.202695e-01 0.000000e+00)
	(1.276687e-02 -1.212676e-01 0.000000e+00)
	(1.679419e-02 -1.222988e-01 0.000000e+00)
	(2.136192e-02 -1.233724e-01 0.000000e+00)
	(2.663023e-02 -1.244920e-01 0.000000e+00)
	(3.294225e-02 -1.256835e-01 0.000000e+00)
);
noseOffsetSurfaceBack
(
	(-4.325953e-02 1.290507e-01 1.000000e+00)
	(-4.960606e-02 1.235148e-01 1.000000e+00)
	(-5.469178e-02 1.187520e-01 1.000000e+00)
	(-5.896082e-02 1.144894e-01 1.000000e+00)
	(-6.262879e-02 1.106064e-01 1.000000e+00)
	(-6.585037e-02 1.070061e-01 1.000000e+00)
	(-6.873003e-02 1.036188e-01 1.000000e+00)
	(-7.133782e-02 1.003972e-01 1.000000e+00)
	(-7.372388e-02 9.730601e-02 1.000000e+00)
	(-7.592564e-02 9.431792e-02 1.000000e+00)
	(-7.797017e-02 9.141302e-02 1.000000e+00)
	(-7.987884e-02 8.857485e-02 1.000000e+00)
	(-8.166848e-02 8.578986e-02 1.000000e+00)
	(-8.335345e-02 8.304512e-02 1.000000e+00)
	(-8.494414e-02 8.033140e-02 1.000000e+00)
	(-8.644881e-02 7.764117e-02 1.000000e+00)
	(-8.787515e-02 7.496595e-02 1.000000e+00)
	(-8.922890e-02 7.229917e-02 1.000000e+00)
	(-9.051510e-02 6.963410e-02 1.000000e+00)
	(-9.173731e-02 6.696557e-02 1.000000e+00)
	(-9.289922e-02 6.428680e-02 1.000000e+00)
	(-9.400284e-02 6.159337e-02 1.000000e+00)
	(-9.504994e-02 5.888028e-02 1.000000e+00)
	(-9.604209e-02 5.614164e-02 1.000000e+00)
	(-9.698000e-02 5.337232e-02 1.000000e+00)
	(-9.786357e-02 5.056813e-02 1.000000e+00)
	(-9.869304e-02 4.772215e-02 1.000000e+00)
	(-9.946735e-02 4.482962e-02 1.000000e+00)
	(-1.001850e-01 4.188557e-02 1.000000e+00)
	(-1.008448e-01 3.888094e-02 1.000000e+00)
	(-1.014438e-01 3.581083e-02 1.000000e+00)
	(-1.019788e-01 3.266735e-02 1.000000e+00)
	(-1.024458e-01 2.944310e-02 1.000000e+00)
	(-1.028399e-01 2.612822e-02 1.000000e+00)
	(-1.031552e-01 2.271137e-02 1.000000e+00)
	(-1.033840e-01 1.918287e-02 1.000000e+00)
	(-1.035173e-01 1.552627e-02 1.000000e+00)
	(-1.035437e-01 1.172652e-02 1.000000e+00)
	(-1.034489e-01 7.764761e-03 1.000000e+00)
	(-1.032147e-01 3.614463e-03 1.000000e+00)
	(-1.028176e-01 -7.564936e-04 1.000000e+00)
	(-1.022256e-01 -5.389969e-03 1.000000e+00)
	(-1.013945e-01 -1.034550e-02 1.000000e+00)
	(-1.002571e-01 -1.571691e-02 1.000000e+00)
	(-9.870086e-02 -2.166951e-02 1.000000e+00)
	(-9.648963e-02 -2.857697e-02 1.000000e+00)
	(-9.234179e-02 -3.884098e-02 1.000000e+00)
	(-8.548222e-02 -5.134664e-02 1.000000e+00)
	(-8.548222e-02 -5.134664e-02 1.000000e+00)
	(-7.820541e-02 -6.255775e-02 1.000000e+00)
	(-7.331559e-02 -6.870623e-02 1.000000e+00)
	(-7.025776e-02 -7.222051e-02 1.000000e+00)
	(-6.769448e-02 -7.500199e-02 1.000000e+00)
	(-6.540337e-02 -7.737335e-02 1.000000e+00)
	(-6.328612e-02 -7.947579e-02 1.000000e+00)
	(-6.128778e-02 -8.138677e-02 1.000000e+00)
	(-5.937602e-02 -8.315200e-02 1.000000e+00)
	(-5.752964e-02 -8.480138e-02 1.000000e+00)
	(-5.573184e-02 -8.635739e-02 1.000000e+00)
	(-5.396974e-02 -8.783670e-02 1.000000e+00)
	(-5.223568e-02 -8.924995e-02 1.000000e+00)
	(-5.052258e-02 -9.060628e-02 1.000000e+00)
	(-4.882371e-02 -9.191362e-02 1.000000e+00)
	(-4.713633e-02 -9.317623e-02 1.000000e+00)
	(-4.545398e-02 -9.440065e-02 1.000000e+00)
	(-4.377289e-02 -9.559089e-02 1.000000e+00)
	(-4.209057e-02 -9.674977e-02 1.000000e+00)
	(-4.040444e-02 -9.787987e-02 1.000000e+00)
	(-3.871113e-02 -9.898413e-02 1.000000e+00)
	(-3.700614e-02 -1.000658e-01 1.000000e+00)
	(-3.528793e-02 -1.011262e-01 1.000000e+00)
	(-3.355339e-02 -1.021671e-01 1.000000e+00)
	(-3.180025e-02 -1.031900e-01 1.000000e+00)
	(-3.002433e-02 -1.041970e-01 1.000000e+00)
	(-2.822248e-02 -1.051896e-01 1.000000e+00)
	(-2.639095e-02 -1.061692e-01 1.000000e+00)
	(-2.452744e-02 -1.071364e-01 1.000000e+00)
	(-2.262608e-02 -1.080934e-01 1.000000e+00)
	(-2.068292e-02 -1.090412e-01 1.000000e+00)
	(-1.869298e-02 -1.099808e-01 1.000000e+00)
	(-1.664850e-02 -1.109146e-01 1.000000e+00)
	(-1.454496e-02 -1.118428e-01 1.000000e+00)
	(-1.237254e-02 -1.127676e-01 1.000000e+00)
	(-1.012341e-02 -1.136900e-01 1.000000e+00)
	(-7.786780e-03 -1.146117e-01 1.000000e+00)
	(-5.346165e-03 -1.155356e-01 1.000000e+00)
	(-2.787323e-03 -1.164631e-01 1.000000e+00)
	(-9.064741e-05 -1.173963e-01 1.000000e+00)
	(2.772654e-03 -1.183393e-01 1.000000e+00)
	(5.836228e-03 -1.192955e-01 1.000000e+00)
	(9.146032e-03 -1.202695e-01 1.000000e+00)
	(1.276687e-02 -1.212676e-01 1.000000e+00)
	(1.679419e-02 -1.222988e-01 1.000000e+00)
	(2.136192e-02 -1.233724e-01 1.000000e+00)
	(2.663023e-02 -1.244920e-01 1.000000e+00)
	(3.294225e-02 -1.256835e-01 1.000000e+00)
);
upperOffsetSurfaceFront
(
	(-1.664351e-02 1.485906e-01 0.000000e+00)
	(2.934964e-02 1.747272e-01 0.000000e+00)
	(7.744278e-02 1.959175e-01 0.000000e+00)
	(1.232838e-01 2.126782e-01 0.000000e+00)
	(1.684709e-01 2.267221e-01 0.000000e+00)
	(2.135177e-01 2.385345e-01 0.000000e+00)
	(2.585142e-01 2.483440e-01 0.000000e+00)
	(3.035622e-01 2.562756e-01 0.000000e+00)
	(3.486184e-01 2.623573e-01 0.000000e+00)
	(3.936483e-01 2.666695e-01 0.000000e+00)
	(4.387549e-01 2.692388e-01 0.000000e+00)
	(4.840647e-01 2.700195e-01 0.000000e+00)
	(5.297812e-01 2.688662e-01 0.000000e+00)
	(5.759029e-01 2.654916e-01 0.000000e+00)
	(6.218821e-01 2.597637e-01 0.000000e+00)
	(6.671509e-01 2.519846e-01 0.000000e+00)
	(7.118762e-01 2.425282e-01 0.000000e+00)
	(7.570366e-01 2.312831e-01 0.000000e+00)
	(8.031983e-01 2.174817e-01 0.000000e+00)
	(8.498688e-01 2.006241e-01 0.000000e+00)
	(8.955905e-01 1.809623e-01 0.000000e+00)
	(9.381383e-01 1.597050e-01 0.000000e+00)
	(9.781707e-01 1.376313e-01 0.000000e+00)
	(1.016872e+00 1.148747e-01 0.000000e+00)
);
upperOffsetSurfaceBack
(
	(-1.664351e-02 1.485906e-01 1.000000e+00)
	(2.934964e-02 1.747272e-01 1.000000e+00)
	(7.744278e-02 1.959175e-01 1.000000e+00)
	(1.232838e-01 2.126782e-01 1.000000e+00)
	(1.684709e-01 2.267221e-01 1.000000e+00)
	(2.135177e-01 2.385345e-01 1.000000e+00)
	(2.585142e-01 2.483440e-01 1.000000e+00)
	(3.035622e-01 2.562756e-01 1.000000e+00)
	(3.486184e-01 2.623573e-01 1.000000e+00)
	(3.936483e-01 2.666695e-01 1.000000e+00)
	(4.387549e-01 2.692388e-01 1.000000e+00)
	(4.840647e-01 2.700195e-01 1.000000e+00)
	(5.297812e-01 2.688662e-01 1.000000e+00)
	(5.759029e-01 2.654916e-01 1.000000e+00)
	(6.218821e-01 2.597637e-01 1.000000e+00)
	(6.671509e-01 2.519846e-01 1.000000e+00)
	(7.118762e-01 2.425282e-01 1.000000e+00)
	(7.570366e-01 2.312831e-01 1.000000e+00)
	(8.031983e-01 2.174817e-01 1.000000e+00)
	(8.498688e-01 2.006241e-01 1.000000e+00)
	(8.955905e-01 1.809623e-01 1.000000e+00)
	(9.381383e-01 1.597050e-01 1.000000e+00)
	(9.781707e-01 1.376313e-01 1.000000e+00)
	(1.016872e+00 1.148747e-01 1.000000e+00)
);
convertToMeters 1.000000e+00;
vertices
(
	(2.583603e-02 5.633085e-02 0.000000e+00)
	(1.001664e+00 6.792260e-03 0.000000e+00)
	(5.568898e-02 -2.808615e-02 0.000000e+00)
	(9.983365e-01 -6.792260e-03 0.000000e+00)
	(-3.443180e-02 1.361293e-01 0.000000e+00)
	(1.088180e+00 7.094780e-02 0.000000e+00)
	(4.125431e-02 -1.270389e-01 0.000000e+00)
	(1.047093e+00 -1.028326e-01 0.000000e+00)
	(-1.732396e+01 -1.734786e+01 0.000000e+00)
	(-1.769068e+01 1.697769e+01 0.000000e+00)
	(2.397993e+01 8.659607e+00 0.000000e+00)
	(2.336879e+01 -1.018215e+01 0.000000e+00)
	(2.583603e-02 5.633085e-02 1.000000e+00)
	(1.001664e+00 6.792260e-03 1.000000e+00)
	(5.568898e-02 -2.808615e-02 1.000000e+00)
	(9.983365e-01 -6.792260e-03 1.000000e+00)
	(-3.443180e-02 1.361293e-01 1.000000e+00)
	(1.088180e+00 7.094780e-02 1.000000e+00)
	(4.125431e-02 -1.270389e-01 1.000000e+00)
	(1.047093e+00 -1.028326e-01 1.000000e+00)
	(-1.732396e+01 -1.734786e+01 1.000000e+00)
	(-1.769068e+01 1.697769e+01 1.000000e+00)
	(2.397993e+01 8.659607e+00 1.000000e+00)
	(2.336879e+01 -1.018215e+01 1.000000e+00)
);
blocks
(
	hex ( 1 5 4 0 13 17 16 12 ) (100 150 1) edgeGrading ( 600.0 600.0 600.0 600.0 ((0.5 0.5 3.0) (0.5 0.5 0.333333333333)) ((0.5 0.5 0.5) (0.5 0.5 2.0)) ((0.5 0.5 0.5) (0.5 0.5 2.0)) ((0.5 0.5 3.0) (0.5 0.5 0.333333333333)) 1 1 1 1 )
	hex ( 0 4 6 2 12 16 18 14 ) (100 35 1) edgeGrading ( 600.0 600.0 600.0 600.0 1 ((0.5 0.5 0.8) (0.5 0.5 1.25)) ((0.5 0.5 0.8) (0.5 0.5 1.25)) 1 1 1 1 1 )
	hex ( 2 6 7 3 14 18 19 15 ) (100 150 1) edgeGrading ( 600.0 600.0 600.0 600.0 ((0.5 0.5 4.0) (0.5 0.5 0.25)) ((0.5 0.5 0.5) (0.5 0.5 2.0)) ((0.5 0.5 0.5) (0.5 0.5 2.0)) ((0.5 0.5 4.0) (0.5 0.5 0.25)) 1 1 1 1 )
	hex ( 3 7 5 1 15 19 17 13 ) (100 15 1) edgeGrading ( 600.0 600.0 600.0 600.0 1 ((0.5 0.5 1.2) (0.5 0.5 0.833333333333)) ((0.5 0.5 1.2) (0.5 0.5 0.833333333333)) 1 1 1 1 1 )
	hex ( 5 10 9 4 17 22 21 16 ) (75 150 1) edgeGrading ( 250.0 250.0 250.0 250.0 ((0.5 0.5 0.5) (0.5 0.5 2.0)) ((0.5 0.5 0.2) (0.5 0.5 5.0)) ((0.5 0.5 0.2) (0.5 0.5 5.0)) ((0.5 0.5 0.5) (0.5 0.5 2.0)) 1 1 1 1 )
	hex ( 4 9 8 6 16 21 20 18 ) (75 35 1) edgeGrading ( 250.0 250.0 250.0 250.0 ((0.5 0.5 0.8) (0.5 0.5 1.25)) ((0.5 0.5 2.5) (0.5 0.5 0.4)) ((0.5 0.5 2.5) (0.5 0.5 0.4)) ((0.5 0.5 0.8) (0.5 0.5 1.25)) 1 1 1 1 )
	hex ( 6 8 11 7 18 20 23 19 ) (75 150 1) edgeGrading ( 250.0 250.0 250.0 250.0 ((0.5 0.5 0.5) (0.5 0.5 2.0)) ((0.5 0.5 0.2) (0.5 0.5 5.0)) ((0.5 0.5 0.2) (0.5 0.5 5.0)) ((0.5 0.5 0.5) (0.5 0.5 2.0)) 1 1 1 1 )
	hex ( 7 11 10 5 19 23 22 17 ) (75 15 1) edgeGrading ( 250.0 250.0 250.0 250.0 ((0.5 0.5 1.2) (0.5 0.5 0.833333333333)) ((0.5 0.5 2.5) (0.5 0.5 0.4)) ((0.5 0.5 2.5) (0.5 0.5 0.4)) ((0.5 0.5 1.2) (0.5 0.5 0.833333333333)) 1 1 1 1 )
);
edges
(
	spline 0 1 $upperSurfaceFront
	spline 12 13 $upperSurfaceBack
	spline 6 7 $lowerOffsetSurfaceFront
	spline 18 19 $lowerOffsetSurfaceBack
	spline 0 2 $noseSurfaceFront
	spline 12 14 $noseSurfaceBack
	arc 9 8 ( -24.5008867656 0.0 0.0 )
	arc 21 20 ( -24.5008867656 0.0 1.0 )
	arc 7 5 ( 1.09733274927 -0.0229420121246 0.0 )
	arc 19 17 ( 1.09733274927 -0.0229420121246 1.0 )
	arc 10 9 ( 0.0 25.0 0.0 )
	arc 22 21 ( 0.0 25.0 1.0 )
	spline 2 3 $lowerSurfaceFront
	spline 14 15 $lowerSurfaceBack
	arc 11 10 ( 25.4991132344 0.0 0.0 )
	arc 23 22 ( 25.4991132344 0.0 1.0 )
	spline 4 6 $noseOffsetSurfaceFront
	spline 16 18 $noseOffsetSurfaceBack
	spline 4 5 $upperOffsetSurfaceFront
	spline 16 17 $upperOffsetSurfaceBack
	arc 8 11 ( 0.0 -25.0 0.0 )
	arc 20 23 ( 0.0 -25.0 1.0 )
);
boundary
(
outer
{
	type patch;
	faces
	(
		( 10 9 21 22 )
		( 9 8 20 21 )
		( 8 11 23 20 )
		( 10 11 23 22 )
	);
}
foil
{
	type wall;
	faces
	(
		( 0 1 13 12 )
		( 1 3 15 13 )
		( 3 2 14 15 )
		( 2 0 12 14 )
	);
}
front
{
	type empty;
	faces
	(
		( 1 5 4 0 )
		( 0 4 6 2 )
		( 2 6 7 3 )
		( 3 7 5 1 )
		( 5 10 9 4 )
		( 4 9 8 6 )
		( 6 8 11 7 )
		( 7 11 10 5 )
	);
}
back
{
	type empty;
	faces
	(
		( 13 17 16 12 )
		( 12 16 18 14 )
		( 14 18 19 15 )
		( 15 19 17 13 )
		( 17 22 21 16 )
		( 16 21 20 18 )
		( 18 20 23 19 )
		( 19 23 22 17 )
	);
}
);
mergePatchPairs
(
);
